*Heading
** Job name: Job-1 Model name: Model-1
** Generated by: Abaqus/CAE 2016
*Preprint, echo=NO, model=NO, history=NO, contact=NO
**
** PARTS
**
*Part, name=central_shaft
*Node
      1,         66.5,           7.,   3.79999995
      2,         76.5,           7.,   3.79999995
      3,         76.5,           7.,  -3.79999995
      4,         66.5,           7.,  -3.79999995
      5,         104.,           0.,         -11.
      6,         104.,           0.,          11.
      7,         76.5,   7.19999981,           4.
      8,         76.5,   7.19999981,          -4.
      9,         66.5,   7.19999981,          -4.
     10,         66.5,   7.19999981,           4.
     11,          89.,           0.,         -11.
     12,          89.,           0.,          11.
     13,         76.5,   10.2469511,           4.
     14,         76.5,   10.2469511,          -4.
     15,         66.5,   10.2469511,          -4.
     16,         66.5,   10.2469511,           4.
     17,         81.5,           0.,         -11.
     18,         81.5,           0.,          11.
     19,   62.0999985,           0.,         -11.
     20,   62.0999985,           0.,          11.
** ... 7868 like lines cut
*Element, type=C3D4
    1, 2540, 2541, 2542, 2543
    2, 2544, 2545, 2546, 2540
    3, 2540, 2544, 2541, 2547
    4, 2540, 2548, 2542, 2545
    5, 2540, 2548, 2546, 2549
    6, 2545, 2540, 2548, 2546
    7, 2550, 2551, 2552, 2553
    8, 2550, 2554, 2555, 2553
    9, 2556, 2550, 2557, 2554
   10, 2550, 2558, 2559, 2560
   11, 2561, 2562, 2563, 2564
   12, 2564, 2562, 2565, 2561
   13, 2562, 2566, 2567, 2568
   14, 2562, 2569, 2564, 2570
   15, 2571, 2405, 2388, 2406
   16, 2568, 2562, 2572, 2569
   17, 2572, 2569, 2573, 2568
   18, 2568, 2562, 2563, 2567
   19, 2574, 2575, 2576, 2203
   20, 2577, 2578, 2579, 2580
** ... 39751 like lines cut
*Nset, nset=Set-1, generate
    1,  7888,     1
*Elset, elset=Set-1, generate
     1,  39771,      1
** Section: Section-1
*Solid Section, elset=Set-1, material=Material-1
,
*End Part
**  
*Part, name=central_shaft-Copy
*Node
      1,          50.,   4.00781298,  -14.9573612
      2,          50.,   5.92585278,  -14.3062744
      3,          50.,   9.42667103,  -12.2850761
      4,          50.,   12.2850761,  -9.42667103
      5,          50.,   14.3062744,  -5.92585278
      6,          50.,   14.9573612,  -4.00781298
      7,          50.,           0.,  -15.4849997
      8,          50.,   15.4849997,           0.
      9,          50.,   15.3844919,   1.76143289
     10,          50.,   15.0842705,          3.5
     11,          50.,   13.6148567,   7.37705231
     12,          50.,   12.5046778,   9.13335896
     13,          50.,   9.63295746,   12.1239996
     14,          50.,   6.07062864,   14.2454443
     15,          50.,   4.10884428,    14.929924
     16,          50.,           0.,   15.4849997
     17,          50.,  -4.00781298,  -14.9573612
     18,          50.,  -5.92585278,  -14.3062744
     19,          50.,  -9.42667103,  -12.2850761
     20,          50.,  -12.2850761,  -9.42667103
** ... 1240 like lines cut
*Element, type=C3D6
 1,   76,   66,   19,  166,  156,  109
 2,   40,   73,   28,  130,  163,  118
 3,   13,   89,   63,  103,  179,  153
 4,    3,   57,   84,   93,  147,  174
 5,   49,    8,   60,  139,   98,  150
 6,   36,   23,   70,  126,  113,  160
 7,  166,  156,  109,  256,  246,  199
 8,  130,  163,  118,  220,  253,  208
 9,  103,  179,  153,  193,  269,  243
10,   93,  147,  174,  183,  237,  264
11,  139,   98,  150,  229,  188,  240
12,  126,  113,  160,  216,  203,  250
13,  256,  246,  199,  346,  336,  289
14,  220,  253,  208,  310,  343,  298
15,  193,  269,  243,  283,  359,  333
16,  183,  237,  264,  273,  327,  354
17,  229,  188,  240,  319,  278,  330
18,  216,  203,  250,  306,  293,  340
19,  346,  336,  289,  436,  426,  379
20,  310,  343,  298,  400,  433,  388
** ... 58 like lines cut
*Element, type=C3D8R
 79,    7,   65,   75,   42,   97,  155,  165,  132
 80,   30,   75,   65,   17,  120,  165,  155,  107
 81,   31,   30,   17,   18,  121,  120,  107,  108
 82,   18,   66,   76,   31,  108,  156,  166,  121
 83,   32,   67,   20,   33,  122,  157,  110,  123
 84,   34,   77,   68,   21,  124,  167,  158,  111
 85,   21,   22,   78,   34,  111,  112,  168,  124
 86,   69,   23,   36,   35,  159,  113,  126,  125
 87,   36,   70,   24,   79,  126,  160,  114,  169
 88,   37,   25,   71,   80,  127,  115,  161,  170
 89,   26,   72,   39,   38,  116,  162,  129,  128
 90,   72,   27,   81,   39,  162,  117,  171,  129
 91,   29,   41,   40,   28,  119,  131,  130,  118
 92,   41,   29,   74,   82,  131,  119,  164,  172
 93,   16,   64,   90,   43,  106,  154,  180,  133
 94,   82,   74,   16,   43,  172,  164,  106,  133
 95,   49,   50,    9,    8,  139,  140,   99,   98
 96,   50,   87,   10,    9,  140,  177,  100,   99
 97,   10,   87,   51,   61,  100,  177,  141,  151
 98,   11,   88,   52,   12,  101,  178,  142,  102
** ... 526 like lines cut
*Nset, nset=Set-1, generate
    1,  1260,     1
*Elset, elset=Set-1, generate
   1,  624,    1
** Section: Section-1
*Solid Section, elset=Set-1, material=Material-1
,
*End Part
**  
**
** ASSEMBLY
**
*Assembly, name=Assembly
**  
*Instance, name=central_shaft-1, part=central_shaft
*End Instance
**  
*Instance, name=central_shaft-Copy-1, part=central_shaft-Copy
*End Instance
**  
*Node
      1,         104.,  -6.73555729e-16,           0.
*Node
      2,           0.,  6.73555729e-16,           0.
*Node
      3,         37.5,   15.2846355,         1.75
*Node
      4,   71.8000031,           0.,           0.
*Node
      5,         37.5,  9.48182763e-16,           0.
*Nset, nset=Set-4
 1,
*Nset, nset=Set-5
 2,
*Nset, nset=Set-7
 4,
*Nset, nset=Set-9
 3,
*Nset, nset=Set-10
 3,
*Nset, nset=Set-11
 3,
*Nset, nset=Set-12
 4,
*Nset, nset=m_Set-1
 1,
*Nset, nset=m_Set-2
 2,
*Nset, nset=m_Set-3
 3,
*Nset, nset=m_Set-6
 4,
*Elset, elset=_Surf-7_S3, internal, instance=central_shaft-1
  4432,  5501,  5525,  6559,  7318,  7566,  7575,  7583,  7585,  7586,  7609,  7612,  7617,  7621,  7623,  7774
  7790,  8585, 21356
*Elset, elset=_Surf-7_S1, internal, instance=central_shaft-1
 8369,
*Surface, type=ELEMENT, name=Surf-7
_Surf-7_S3, S3
_Surf-7_S1, S1
*Elset, elset=_Surf-8_S4, internal, instance=central_shaft-1
 3832,
*Elset, elset=_Surf-8_S3, internal, instance=central_shaft-1
  3860,  4047,  7485,  8397,  8415,  8526,  8565,  8824,  8990,  9406,  9422,  9562,  9879, 10076, 10145, 10180
 10191, 10364, 10405, 10426, 10439, 10441, 10444, 10459, 10467, 10491, 10497, 10517, 10522, 10538, 10552, 10563
 10580, 10590, 10610, 10626, 10663, 10678, 10691, 10693, 10747, 10760, 10766, 10780, 10801, 10810, 10813, 10881
 10886, 10891, 10910, 10946, 10985, 11002, 11041, 11054, 11092, 11146, 11161, 11275, 11291, 11386, 11499, 11535
 11717, 11762, 11848, 11856, 12025, 12082, 12178, 12198, 12291, 19429, 24337
*Elset, elset=_Surf-8_S1, internal, instance=central_shaft-1
 15978,
*Elset, elset=_Surf-8_S2, internal, instance=central_shaft-1
 26831,
*Surface, type=ELEMENT, name=Surf-8
_Surf-8_S4, S4
_Surf-8_S3, S3
_Surf-8_S2, S2
_Surf-8_S1, S1
*Elset, elset=_m_Surf-4_S5, internal, instance=central_shaft-Copy-1
  79,  82,  85,  86,  89,  90,  93, 100, 110, 121, 124, 127, 128, 131, 132, 135
 142, 152, 163, 166, 169, 170, 173, 174, 177, 184, 194, 205, 208, 211, 212, 215
 216, 219, 226, 236, 247, 250, 253, 254, 257, 258, 261, 268, 278, 289, 292, 295
 296, 299, 300, 303, 310, 320, 331, 334, 337, 338, 341, 342, 345, 352, 362, 373
 376, 379, 380, 383, 384, 387, 394, 404, 415, 418, 421, 422, 425, 426, 429, 436
 446, 457, 460, 463, 464, 467, 468, 471, 478, 488, 499, 502, 505, 506, 509, 510
 513, 520, 530, 541, 544, 547, 548, 551, 552, 555, 562, 572, 583, 586, 589, 590
 593, 594, 597, 604, 614
*Elset, elset=_m_Surf-4_S3, internal, instance=central_shaft-Copy-1
  80,  81,  84,  95,  96, 101, 102, 105, 107, 111, 119, 120, 122, 123, 126, 137
 138, 143, 144, 147, 149, 153, 161, 162, 164, 165, 168, 179, 180, 185, 186, 189
 191, 195, 203, 204, 206, 207, 210, 221, 222, 227, 228, 231, 233, 237, 245, 246
 248, 249, 252, 263, 264, 269, 270, 273, 275, 279, 287, 288, 290, 291, 294, 305
 306, 311, 312, 315, 317, 321, 329, 330, 332, 333, 336, 347, 348, 353, 354, 357
 359, 363, 371, 372, 374, 375, 378, 389, 390, 395, 396, 399, 401, 405, 413, 414
 416, 417, 420, 431, 432, 437, 438, 441, 443, 447, 455, 456, 458, 459, 462, 473
 474, 479, 480, 483, 485, 489, 497, 498, 500, 501, 504, 515, 516, 521, 522, 525
 527, 531, 539, 540, 542, 543, 546, 557, 558, 563, 564, 567, 569, 573, 581, 582
 584, 585, 588, 599, 600, 605, 606, 609, 611, 615, 623, 624
*Elset, elset=_m_Surf-4_S6, internal, instance=central_shaft-Copy-1
  83,  87,  88,  92,  94, 104, 108, 109, 113, 114, 115, 116, 117, 118, 125, 129
 130, 134, 136, 146, 150, 151, 155, 156, 157, 158, 159, 160, 167, 171, 172, 176
 178, 188, 192, 193, 197, 198, 199, 200, 201, 202, 209, 213, 214, 218, 220, 230
 234, 235, 239, 240, 241, 242, 243, 244, 251, 255, 256, 260, 262, 272, 276, 277
 281, 282, 283, 284, 285, 286, 293, 297, 298, 302, 304, 314, 318, 319, 323, 324
 325, 326, 327, 328, 335, 339, 340, 344, 346, 356, 360, 361, 365, 366, 367, 368
 369, 370, 377, 381, 382, 386, 388, 398, 402, 403, 407, 408, 409, 410, 411, 412
 419, 423, 424, 428, 430, 440, 444, 445, 449, 450, 451, 452, 453, 454, 461, 465
 466, 470, 472, 482, 486, 487, 491, 492, 493, 494, 495, 496, 503, 507, 508, 512
 514, 524, 528, 529, 533, 534, 535, 536, 537, 538, 545, 549, 550, 554, 556, 566
 570, 571, 575, 576, 577, 578, 579, 580, 587, 591, 592, 596, 598, 608, 612, 613
 617, 618, 619, 620, 621, 622
*Elset, elset=_m_Surf-4_S4, internal, instance=central_shaft-Copy-1
  91,  97,  98,  99, 103, 106, 112, 133, 139, 140, 141, 145, 148, 154, 175, 181
 182, 183, 187, 190, 196, 217, 223, 224, 225, 229, 232, 238, 259, 265, 266, 267
 271, 274, 280, 301, 307, 308, 309, 313, 316, 322, 343, 349, 350, 351, 355, 358
 364, 385, 391, 392, 393, 397, 400, 406, 427, 433, 434, 435, 439, 442, 448, 469
 475, 476, 477, 481, 484, 490, 511, 517, 518, 519, 523, 526, 532, 553, 559, 560
 561, 565, 568, 574, 595, 601, 602, 603, 607, 610, 616
*Surface, type=ELEMENT, name=m_Surf-4
_m_Surf-4_S5, S5
_m_Surf-4_S3, S3
_m_Surf-4_S6, S6
_m_Surf-4_S4, S4
*Elset, elset=_s_Surf-1_S3, internal, instance=central_shaft-1
  1375,  1386,  1940,  3767,  3821,  3924,  3925,  3930,  3931,  3934,  3948,  3950,  3955,  3957,  3970,  3987
  4005,  4015,  4021,  4028,  4070,  4129,  4595,  4611,  4620,  4628,  4640,  4666,  4676,  4694,  4699,  4710
  4728,  4729,  4731,  4735,  4747,  4763,  4770,  4806,  4890,  4891,  4905,  4921,  4937,  4942,  4953,  4962
  5012,  5019,  5025,  5057,  5075,  5076,  5081,  5113,  5124,  5127,  5138,  5146,  5162,  5179,  5184,  5193
  5199,  5216,  5222,  5229,  5231,  5232,  5246,  5249,  5254,  5256,  5259,  5267,  5273,  5276,  5311,  5537
  5555,  5559,  5562,  5577,  5582,  5593,  5598,  5599,  5604,  5606,  5620,  5630,  5635,  5645,  5655,  5658
  5664,  5688,  5695,  5698,  5710,  5722,  5750,  5763,  5770,  5773,  5789,  5796,  5797,  5798,  5799,  5806
  5810,  5815,  5820,  5821,  5824,  5834,  5835,  5846,  5851,  5855,  5857,  5862,  5895,  5899,  5905,  5908
  5918,  5937,  5939,  5946,  5950,  5952,  5966,  5969,  5979,  5980,  5981,  5990,  5994,  5995,  5996,  6000
  6001,  6007,  6011,  6013,  6014,  6016,  6017,  6021,  6030,  6032,  6033,  6048,  6051,  6053,  6058,  6059
  6064,  6068,  6073,  6089,  6096,  6103,  6105,  6109,  6110,  6116,  6117,  6119,  6125,  6127,  6128,  6139
  6147,  6148,  6156,  6157,  6158,  6167,  6173,  6176,  6177,  6183,  6189,  6190,  6204,  6211,  6217,  6229
  6235,  6242,  6252,  6260,  6264,  6277,  6281,  6282,  6284,  6285,  6287,  6290,  6292,  6303,  6304,  6306
  6308,  6315,  6319,  6322,  6324,  6326,  6331,  6336,  6340,  6351,  6356,  6362,  6367,  6372,  6377,  6385
  6390,  6394,  6402,  6403,  6408,  6409,  6416,  6435,  6443,  6448,  6455,  6467,  6472,  6474,  6478,  6480
  6481,  6490,  6498,  6501,  6525,  6527,  6531,  6534,  6535,  6540,  6541,  6557,  6569,  6576,  6580,  6584
  6588,  6591,  6597,  6599,  6611,  6612,  6616,  6622,  6623,  6626,  6637,  6640,  6642,  6646,  6649,  6655
  6663,  6668,  6669,  6673,  6674,  6697,  6698,  6703,  6723,  6730,  6731,  6732,  6741,  6743,  6751,  6756
  6766,  6774,  6785,  6787,  6788,  6797,  6800,  6802,  6808,  6810,  6819,  6820,  6834,  6836,  6840,  6843
  6845,  6849,  6860,  6867,  6877,  6879,  6885,  6890,  6892,  6895,  6899,  6902,  6907,  6908,  6913,  6923
** ... 10 like lines cut
*Elset, elset=_s_Surf-1_S2, internal, instance=central_shaft-1
  3907,  4606,  4634,  4902,  4989,  5898,  6082,  6090,  6178,  6221,  6298,  6318,  6348,  6688,  6821,  7008
  7010,  7136,  8162, 16432
*Elset, elset=_s_Surf-1_S4, internal, instance=central_shaft-1
  3965,  4967,  5003,  5051,  5754,  6225,  6373,  6386,  6407,  6424,  6430,  6436,  6442,  6459,  6468,  6519
  6594,  6830,  6841,  7135,  7193,  7258, 11949, 16431, 16438, 20274, 23049, 24478, 24969, 30633, 34193, 38415
*Elset, elset=_s_Surf-1_S1, internal, instance=central_shaft-1
  4700,  4715,  4856,  4889,  4931,  5045,  5111,  5714,  5830,  5901,  6098,  6245,  6323,  7144,  7185,  7224
  7230,  7241,  7247,  7251,  7264,  7286,  7293,  7305,  7316, 18605, 18645, 21633, 23824, 25323, 25753, 26127
*Surface, type=ELEMENT, name=s_Surf-1
_s_Surf-1_S3, S3
_s_Surf-1_S2, S2
_s_Surf-1_S4, S4
_s_Surf-1_S1, S1
*Elset, elset=_s_Surf-2_S3, internal, instance=central_shaft-1
    15,   164,   202,   235,   250,   285,   345,   358,   450,   533,   535,   536,   557,   732,   759,   946
  1082,  1235,  1299,  1317,  1328,  1387,  1434,  1458,  1502,  1535,  1610,  1669,  1671,  1985,  2045,  2100
  2178,  2180,  2206,  2454,  2498,  2501,  2512,  3865,  3882,  3884,  3890,  3954,  4084,  4168,  4297,  4300
  4319,  4323,  4345,  4371,  4975,  5628,  7673,  9152, 11739, 11760, 12299, 12314, 12335, 12350, 12383, 12492
 12513, 12619, 12741, 12745, 12747, 12748, 12749, 12878, 12899, 12920, 12942, 13120, 13162, 13167, 13178, 13195
 13204, 13231, 13233, 13235, 13716, 13789, 13825, 13877, 14046, 14052, 14101, 14346, 14556, 14683, 14685, 14838
 15034, 15111, 15383, 15397, 15400, 15658, 15713, 15742, 15815, 15841, 15878, 15897, 15913, 15923, 16018, 16290
 16299, 16377, 16378, 16442, 16475, 16603, 16608, 16657, 16670, 16693, 16735, 16764, 17049, 17077, 17102, 17122
 17140, 17150, 17151, 17175, 17186, 17197, 17217, 17235, 17283, 17304, 17380, 17384, 17386, 17388, 17408, 17418
 17423, 17448, 17467, 17473, 17476, 17495, 17502, 17549, 17570, 17595, 17596, 17598, 17603, 17610, 17613, 17614
 17621, 17632, 17636, 17645, 17654, 17656, 17677, 17683, 17698, 17714, 17717, 17723, 17740, 17743, 17752, 17757
 17760, 17765, 17770, 17773, 17776, 17785, 17791, 17793, 17800, 17808, 17810, 17813, 17815, 17817, 17828, 17837
 17839, 17843, 17846, 17853, 17854, 17857, 17858, 17863, 17864, 17870, 17879, 17885, 17886, 17889, 17892, 17893
 17903, 17924, 17926, 17928, 17933, 17937, 17944, 17948, 17968, 17987, 17989, 17993, 17994, 17999, 18001, 18004
 18005, 18009, 18011, 18013, 18016, 18023, 18028, 18042, 18045, 18050, 18051, 18053, 18065, 18075, 18078, 18087
 18091, 18107, 18118, 18121, 18130, 18136, 18137, 18144, 18151, 18158, 18166, 18168, 18172, 18173, 18180, 18184
 18186, 18193, 18197, 18200, 18201, 18202, 18207, 18208, 18214, 18226, 18227, 18231, 18236, 18241, 18244, 18246
 18247, 18251, 18253, 18257, 18260, 18274, 18277, 18278, 18283, 18290, 18301, 18310, 18311, 18314, 18325, 18327
 18330, 18336, 18341, 18344, 18351, 18361, 18369, 18373, 18375, 18379, 18383, 18387, 18389, 18405, 18410, 18411
 18426, 18444, 18445, 18446, 18456, 18459, 18462, 18464, 18481, 18484, 18485, 18487, 18489, 18497, 18503, 18506
** ... 10 like lines cut
*Elset, elset=_s_Surf-2_S2, internal, instance=central_shaft-1
   809, 15774, 16206, 16238, 17607, 17658, 17942, 17986, 18502
*Elset, elset=_s_Surf-2_S4, internal, instance=central_shaft-1
   240,   402,  1482, 13736, 16218, 16247, 17608, 18224, 18920, 18989, 19090, 19242, 20223, 20672, 23448, 28758
 34889,
*Elset, elset=_s_Surf-2_S1, internal, instance=central_shaft-1
 12658, 15767, 18402, 18498, 18513, 19185, 19282, 23864, 25089, 34962
*Surface, type=ELEMENT, name=s_Surf-2
_s_Surf-2_S3, S3
_s_Surf-2_S2, S2
_s_Surf-2_S4, S4
_s_Surf-2_S1, S1
*Elset, elset=_s_Surf-3_S5, internal, instance=central_shaft-Copy-1
  95,  96, 137, 138, 179, 180, 221, 222, 263, 264, 305, 306, 347, 348, 389, 390
 431, 432, 473, 474, 515, 516, 557, 558, 599, 600
*Surface, type=ELEMENT, name=s_Surf-3
_s_Surf-3_S5, S5
*Elset, elset=_s_Surf-4_S3, internal, instance=central_shaft-1
   964,  1044,  1112,  1318,  1464,  1524,  1528,  1653,  1686,  1709,  1800,  1843,  1873,  1947,  1981,  2026
  2159,  2326,  2409,  2626,  2661,  2702,  3150,  3762,  3787,  3788,  3817,  3835,  3855,  3897,  4034,  4086
  4090,  4100,  4107,  4109,  4111,  4130,  4135,  4148,  4160,  4167,  4171,  4173,  4177,  4179,  4186,  4187
  4190,  4199,  4202,  4214,  4217,  4220,  4224,  4233,  4243,  4252,  4265,  4304,  4309,  4310,  4315,  4382
  4481,  4490,  4570,  4577,  4756,  4775,  4858,  5052,  5062,  5142,  5439,  5625,  5640,  5654,  5662,  5663
  5673,  5681,  5707,  5733,  5751,  5774,  5800,  5828,  5839,  5848,  5860,  5883,  5938,  5943,  5957,  6063
  6065,  6120,  6288,  6289,  6454,  6479,  6757,  6857,  7116,  7125,  7145,  7330,  7431,  7442,  7479,  7498
  7631,  7645,  7721,  8209,  8213,  8380,  8449,  8512,  8598,  8600,  8606,  8773,  8882,  8908,  8919,  8986
  9042,  9051,  9119,  9172,  9224,  9283,  9314,  9481,  9598,  9605,  9610,  9648,  9693,  9908, 10021, 10091
 10117, 10133, 10149, 10185, 10203, 10217, 10278, 10326, 10342, 10360, 10404, 10511, 10524, 10536, 10554, 10612
 10679, 10695, 10700, 10753, 10758, 10797, 10895, 10901, 10904, 10911, 10916, 10924, 10930, 10932, 10945, 10968
 10974, 10978, 10979, 10995, 11025, 11059, 11062, 11063, 11065, 11069, 11072, 11078, 11082, 11093, 11120, 11122
 11134, 11141, 11149, 11156, 11165, 11170, 11176, 11184, 11187, 11213, 11228, 11239, 11325, 11327, 11328, 11589
 11668, 11682, 11697, 11709, 11720, 11731, 11755, 11758, 11770, 11776, 11785, 11794, 11802, 11803, 11821, 11827
 11837, 11839, 11842, 11847, 11858, 11868, 11870, 11894, 11896, 11926, 11933, 11967, 11968, 11971, 11976, 11981
 12018, 12075, 12167, 12322, 12343, 12381, 12388, 12394, 12406, 12409, 12416, 12417, 12422, 12429, 12445, 12446
 12461, 12469, 12480, 12497, 12498, 12509, 12515, 12526, 12533, 12549, 12552, 12558, 12564, 12569, 12571, 12577
 12595, 12600, 12603, 12609, 12611, 12623, 12626, 12638, 12655, 12672, 12674, 12676, 12689, 12705, 12706, 12719
 12726, 12735, 12751, 12773, 12779, 12786, 12787, 12803, 12816, 12848, 12855, 12875, 12880, 12889, 12892, 12893
 12895, 12905, 12912, 12919, 12923, 12932, 12954, 12959, 12984, 12993, 12995, 13000, 13007, 13013, 13027, 13031
** ... 36 like lines cut
*Elset, elset=_s_Surf-4_S1, internal, instance=central_shaft-1
   973,  7246,  7480, 10618, 12439, 12924, 12980, 13713, 14390, 15241, 15314, 15828, 17305, 20543, 23750, 26166
 26596, 26622, 31695, 35353, 35627, 37070, 37301, 37538, 38593, 38913
*Elset, elset=_s_Surf-4_S4, internal, instance=central_shaft-1
   981,  4162,  4223,  5812,  5987,  7781, 10200, 10541, 11882, 11945, 12407, 12421, 12431, 12692, 12768, 12774
 12815, 12903, 13214, 13238, 13350, 13375, 13606, 13610, 13717, 13796, 13876, 14193, 14296, 14411, 14473, 14721
 14958, 14996, 15038, 15152, 15266, 15337, 15341, 15398, 15530, 15548, 15805, 16595, 17025, 17275, 18124, 18300
 18941, 20408, 20853, 21438, 21580, 21898, 22373, 23834, 25493, 26360, 27173, 28603, 31644, 34247, 35719, 38341
*Elset, elset=_s_Surf-4_S2, internal, instance=central_shaft-1
  4204,  4207,  4680,  5071,  6042, 10702, 11303, 11917, 12467, 12843, 13153, 13261, 13326, 13486, 13780, 14306
 14594, 14717, 14772, 14999, 15082, 15102, 15305, 15440, 16233, 17134, 18952, 20406
*Surface, type=ELEMENT, name=s_Surf-4
_s_Surf-4_S3, S3
_s_Surf-4_S1, S1
_s_Surf-4_S4, S4
_s_Surf-4_S2, S2
*Elset, elset=_s_Surf-6_S3, internal, instance=central_shaft-1
  1252,  1756,  2402,  3763,  3764,  3797,  3803,  3824,  3826,  3910,  3997,  4004,  4027,  4030,  4039,  4045
  4052,  4054,  4057,  4059,  4062,  4076,  4284,  4288,  4376,  4383,  4385,  4392,  4397,  4399,  4402,  4404
  4421,  4423,  4425,  4427,  4429,  4431,  4438,  4445,  4461,  4465,  4466,  4472,  4476,  4478,  4483,  4493
  4514,  4520,  4532,  4534,  4543,  4556,  4564,  4575,  4583,  4584,  5284,  5335,  5344,  5354,  5374,  5403
  5411,  5418,  5438,  5459,  5469,  5500,  5506,  5507,  5509,  5518,  5542,  5573,  5616,  5767,  6487,  6606
  6647,  7396,  7424,  7456,  7492,  7597,  7610,  7622,  7644,  7653,  7658,  7675,  7685,  7689,  7695,  7699
  7701,  7703,  7732,  7749,  7756,  7772,  7773,  7775,  7789,  7797,  7798,  7804,  7822,  7828,  7839,  8022
  8024,  8025,  8027,  8037,  8038,  8044,  8054,  8056,  8064,  8067,  8071,  8079,  8098,  8099,  8101,  8107
  8108,  8110,  8120,  8122,  8125,  8136,  8140,  8153,  8169,  8173,  8185,  8192,  8204,  8367,  8368,  8370
  8371,  8383,  8385,  8386,  8395,  8398,  8403,  8406,  8407,  8417,  8419,  8420,  8423,  8429,  8433,  8437
  8440,  8442,  8444,  8447,  8453,  8467,  8468,  8470,  8474,  8475,  8497,  8501,  8503,  8508,  8510,  8511
  8518,  8519,  8524,  8525,  8528,  8530,  8540,  8547,  8550,  8552,  8559,  8560,  8561,  8564,  8570,  8572
  8573,  8580,  8595,  8612,  8614,  8617,  8618,  8621,  8623,  8625,  8640,  8650,  8656,  8666,  8683,  8684
  8687,  8690,  8692,  8694,  8699,  8701,  8704,  8705,  8709,  8712,  8716,  8720,  8721,  8723,  8725,  8732
  8735,  8739,  8740,  8741,  8745,  8746,  8747,  8752,  8755,  8764,  8768,  8771,  8782,  8785,  8801,  8804
  8812,  8816,  8820,  8829,  8844,  8848,  8856,  8857,  8858,  8876,  8878,  8883,  8884,  8888,  8890,  8892
  8893,  8903,  8906,  8911,  8916,  8920,  8941,  8949,  8959,  8970,  8971,  8978,  8993,  8996,  9016,  9047
  9053,  9061,  9063,  9067,  9077,  9081,  9084,  9089,  9090,  9091,  9092,  9099,  9100,  9103,  9104,  9114
  9120,  9135,  9143,  9170,  9177,  9209,  9213,  9220,  9222,  9225,  9230,  9232,  9233,  9235,  9238,  9241
  9243,  9245,  9249,  9253,  9256,  9257,  9261,  9266,  9267,  9268,  9271,  9274,  9278,  9285,  9286,  9288
** ... 17 like lines cut
*Elset, elset=_s_Surf-6_S2, internal, instance=central_shaft-1
 3989, 5385, 5525, 5748, 7382, 7471, 7672, 7790, 8456, 8711, 9579
*Elset, elset=_s_Surf-6_S4, internal, instance=central_shaft-1
  4024,  4374,  4456,  5214,  5840,  7459,  7576,  7621,  7769,  8583,  8697,  8791,  8987,  9191, 10096, 12243
 13561, 15288, 19364, 19465, 21756, 21939, 22298, 24363, 25069, 25449, 28789, 30440
*Elset, elset=_s_Surf-6_S1, internal, instance=central_shaft-1
  5533,  7353,  7401,  7440,  7473,  7585,  7609,  7611,  7757,  8443,  8672,  8718,  8807, 10072, 17493, 23414
 23967, 25001, 27455, 36593
*Surface, type=ELEMENT, name=s_Surf-6
_s_Surf-6_S3, S3
_s_Surf-6_S2, S2
_s_Surf-6_S4, S4
_s_Surf-6_S1, S1
*Nset, nset="_T-central_shaft-Copy-1-Datum csys-1", internal
Set-11, 
*Transform, nset="_T-central_shaft-Copy-1-Datum csys-1"
          0., -0.99350929997198, -0.113750915904823, 0.968726235559925, 0.0282252402284716, -0.246521431830868
** Constraint: Constraint-1
*Coupling, constraint name=Constraint-1, ref node=m_Set-1, surface=s_Surf-1
*Distributing, weighting method=UNIFORM
** Constraint: Constraint-2
*Coupling, constraint name=Constraint-2, ref node=m_Set-2, surface=s_Surf-2
*Distributing, weighting method=UNIFORM
** Constraint: Constraint-3
*Coupling, constraint name=Constraint-3, ref node=m_Set-3, surface=s_Surf-3
*Distributing, weighting method=UNIFORM
** Constraint: Constraint-4
*Tie, name=Constraint-4, adjust=yes
s_Surf-4, m_Surf-4
** Constraint: Constraint-5
*Coupling, constraint name=Constraint-5, ref node=m_Set-6, surface=s_Surf-6
*Distributing, weighting method=UNIFORM
*End Assembly
** 
** MATERIALS
** 
** 16MnCr5
*Material, name=Material-1
*Density
7850.,
*Elastic
 2.1e+11, 0.33
** ----------------------------------------------------------------
** 
** STEP: Step-1
** 
*Step, name=Step-1, nlgeom=NO
*Static
1., 1., 1e-05, 1.
** 
** BOUNDARY CONDITIONS
** 
** Name: BC-1 Type: Displacement/Rotation
*Boundary
Set-4, 1, 1
Set-4, 2, 2
Set-4, 3, 3
** Name: BC-3 Type: Displacement/Rotation
*Boundary
Set-5, 2, 2
Set-5, 3, 3
** Name: BC-4 Type: Displacement/Rotation
*Boundary
Set-11, 2, 2
** 
** LOADS
** 
** Name: Load-1   Type: Pressure
*Dsload
Surf-7, P, 1.0997e+08
** Name: Load-2   Type: Pressure
*Dsload
Surf-8, P, 1.48032
** Name: Load-3   Type: Concentrated force
*Cload
Set-12, 2, 288.21
** 
** OUTPUT REQUESTS
** 
*Restart, write, frequency=0
** 
** FIELD OUTPUT: F-Output-1
** 
*Output, field, variable=PRESELECT
** 
** HISTORY OUTPUT: H-Output-1
** 
*Output, history, variable=PRESELECT
*End Step
